
  EPA STORM WATER MANAGEMENT MODEL - VERSION 5.1 (Build 5.2.0.dev5)
  --------------------------------------------------------------

  Ep 
  silon 
  
  WARNING 04: minimum elevation drop used for Conduit 023
  
  *************
  Element Count
  *************
  Number of rain gages ...... 7
  Number of subcatchments ... 21
  Number of nodes ........... 78
  Number of links ........... 77
  Number of pollutants ...... 1
  Number of land uses ....... 1
  
  
  *****************
  Pollutant Summary
  *****************
                               Ppt.      GW         Kdecay
  Name                 Units   Concen.   Concen.    1/days    CoPollutant
  -----------------------------------------------------------------------
  TSS                   MG/L      0.00      0.00      0.00
  
  
  ***************
  Landuse Summary
  ***************
                         Sweeping   Maximum      Last
  Name                   Interval   Removal     Swept
  ---------------------------------------------------
  Default                    0.00      0.00      0.00
  
  
  ****************
  Raingage Summary
  ****************
                                                      Data       Recording
  Name                 Data Source                    Type       Interval 
  ------------------------------------------------------------------------
  PG01                 PG01_40d                       CUMULATIVE  15 min.
  PG02                 PG02_40d                       CUMULATIVE  15 min.
  PG03                 PG03_40d                       CUMULATIVE  15 min.
  PG04                 PG04_40d                       CUMULATIVE  15 min.
  PG05                 PG05_40d                       CUMULATIVE  15 min.
  PG06                 PG06_40d                       CUMULATIVE  15 min.
  PG07                 PG07_40d                       CUMULATIVE  15 min.
  
  
  ********************
  Subcatchment Summary
  ********************
  Name                       Area     Width   %Imperv    %Slope Rain Gage            Outlet              
  -----------------------------------------------------------------------------------------------------------
  S001                    1428.00 622037.00     43.00    1.0000 PG07                 007                 
  S002                     410.00 178596.00     43.00    1.0000 PG04                 009                 
  S003                    1034.00 450410.00     35.00    1.0000 PG07                 012                 
  S004                    1155.00 503118.00     40.00    1.0000 PG07                 014                 
  S005                     291.00 126760.00     38.00    1.0000 PG06                 015                 
  S006                    1797.00 782773.00     45.00    1.0000 PG02                 016                 
  S007                    1077.00 469141.00     42.00    1.0000 PG06                 017                 
  S008                     173.20  75446.00     75.00    1.0000 PG01                 023                 
  S009                     479.60 208909.00     41.10    1.0000 PG06                 024                 
  S010                      47.00  20473.00     38.00    1.0000 PG02                 035                 
  S011                    1593.00 693911.00     37.00    1.0000 PG02                 036                 
  S012                     456.00 198634.00     40.00    1.0000 PG05                 040                 
  S013                     800.00 348480.00     40.00    1.0000 PG05                 041                 
  S014                     432.00 188179.00     46.00    1.0000 PG03                 046                 
  S015                      97.00  42253.00     40.00    1.0000 PG03                 051                 
  S016                      62.00  27007.00     39.00    1.0000 PG02                 054                 
  S017                     716.00 311890.00     44.00    1.0000 PG02                 055                 
  S018                    1089.00 474368.00     35.00    1.0000 PG03                 057                 
  S019                    1651.00 719176.00     35.00    1.0000 PG02                 062                 
  S020                     766.00 333670.00     41.00    1.0000 PG03                 064                 
  S021                    1074.00 467834.00     50.00    1.0000 PG03                 065                 
  
  
  ************
  Node Summary
  ************
                                           Invert      Max.    Ponded    External
  Name                 Type                 Elev.     Depth      Area    Inflow  
  -------------------------------------------------------------------------------
  001                  JUNCTION            566.76     18.00       0.0
  002                  JUNCTION            581.56     29.10       0.0
  003                  JUNCTION            581.66     29.00       0.0
  004                  JUNCTION            581.66     29.00       0.0
  005                  JUNCTION            586.31     29.45       0.0
  006                  JUNCTION            586.36     29.40       0.0    Yes
  007                  JUNCTION           1014.14     40.00       0.0    Yes
  008                  JUNCTION            587.26     33.20       0.0    Yes
  009                  JUNCTION            823.08     40.00       0.0    Yes
  010                  JUNCTION            587.31     33.15       0.0
  011                  JUNCTION            587.36     33.10       0.0
  012                  JUNCTION            938.16     40.00       0.0    Yes
  013                  JUNCTION            594.36     42.90       0.0    Yes
  014                  JUNCTION            971.56     40.00       0.0    Yes
  015                  JUNCTION            800.96     40.00       0.0    Yes
  016                  JUNCTION           1086.56     40.00       0.0    Yes
  017                  JUNCTION            970.22     40.00       0.0    Yes
  018                  JUNCTION            569.76     18.00       0.0
  019                  JUNCTION            571.76     41.00       0.0
  020                  JUNCTION            572.46     48.00       0.0
  021                  JUNCTION            572.46     48.00       0.0
  022                  JUNCTION            572.46     48.00       0.0
  023                  JUNCTION            788.15     40.00       0.0    Yes
  024                  JUNCTION            826.72     40.00       0.0    Yes
  025                  JUNCTION            578.76     55.10       0.0
  026                  JUNCTION            578.81     55.05       0.0
  027                  JUNCTION            578.86     55.00       0.0
  028                  JUNCTION            585.16     52.60       0.0
  029                  JUNCTION            585.21     52.55       0.0
  030                  JUNCTION            585.26     52.50       0.0
  031                  JUNCTION            591.26     49.40       0.0
  032                  JUNCTION            591.31     45.65       0.0
  033                  JUNCTION            591.36     45.60       0.0
  034                  JUNCTION            596.56     47.70       0.0
  035                  JUNCTION            759.16     40.00       0.0    Yes
  036                  JUNCTION           1052.56     40.00       0.0    Yes
  037                  JUNCTION            603.76     41.30       0.0
  038                  JUNCTION            603.81     41.25       0.0
  039                  JUNCTION            603.86     41.20       0.0
  040                  JUNCTION            877.36     40.00       0.0    Yes
  041                  JUNCTION            989.46     40.00       0.0    Yes
  042                  JUNCTION            572.76     18.00       0.0
  043                  JUNCTION            580.81     46.45       0.0
  044                  JUNCTION            580.86     46.40       0.0
  045                  JUNCTION            583.46     44.30       0.0    Yes
  046                  JUNCTION            840.96     40.00       0.0    Yes
  047                  JUNCTION            584.86     43.00       0.0    Yes
  048                  JUNCTION            604.46     22.30       0.0
  049                  JUNCTION            604.51     22.95       0.0
  050                  JUNCTION            604.56     22.90       0.0
  051                  JUNCTION            742.30     40.00       0.0    Yes
  052                  JUNCTION            607.56     23.40       0.0
  053                  JUNCTION            612.86     25.00       0.0
  054                  JUNCTION            751.96     40.00       0.0    Yes
  055                  JUNCTION            907.67     40.00       0.0    Yes
  056                  JUNCTION            587.16     43.10       0.0
  057                  JUNCTION           1009.70     40.00       0.0    Yes
  058                  JUNCTION            604.66     27.00       0.0
  059                  JUNCTION            604.71     26.95       0.0
  060                  JUNCTION            604.76     28.90       0.0    Yes
  061                  JUNCTION            606.46     26.10       0.0
  062                  JUNCTION           1091.05     40.00       0.0    Yes
  063                  JUNCTION            589.76     40.00       0.0
  064                  JUNCTION            913.56     40.00       0.0    Yes
  065                  JUNCTION            979.53     40.00       0.0    Yes
  1                    OUTFALL             563.76     18.00       0.0
  SU001                STORAGE             578.38     19.98       0.0    Yes
  SU002                STORAGE             586.26     29.50       0.0
  SU003                STORAGE             591.56     42.20       0.0    Yes
  SU004                STORAGE             597.46     38.30       0.0    Yes
  SU005                STORAGE             601.36     42.40       0.0    Yes
  SU006                STORAGE             576.46     56.60       0.0    Yes
  SU007                STORAGE             616.86     23.90       0.0    Yes
  SU008                STORAGE             620.36     26.50       0.0    Yes
  SU009                STORAGE             580.36     46.90       0.0    Yes
  SU010                STORAGE             580.76     46.50       0.0
  SU011                STORAGE             604.56     35.80       0.0    Yes
  SU012                STORAGE             599.06     24.70       0.0    Yes
  
  
  ************
  Link Summary
  ************
  Name             From Node        To Node          Type            Length    %Slope Roughness
  ---------------------------------------------------------------------------------------------
  001              001              1                CONDUIT         3000.0    0.1000    0.0100
  002              SU001            001              CONDUIT          400.0    2.9062    0.0100
  003              002              SU001            CONDUIT         1840.0    0.1728    0.0120
  004              003              002              CONDUIT          500.0    0.0200    0.0100
  005              SU002            004              CONDUIT         3621.0    0.1270    0.0120
  006              005              SU002            CONDUIT          400.0    0.0125    0.0110
  007              007              006              CONDUIT        43704.0    0.9789    0.0130
  008              008              SU002            CONDUIT         1200.0    0.0833    0.0130
  009              009              008              CONDUIT        18109.0    1.3023    0.0130
  010              010              008              CONDUIT          400.0    0.0125    0.0100
  011              SU003            011              CONDUIT         5443.0    0.0772    0.0130
  012              012              SU003            CONDUIT        32880.0    1.0542    0.0130
  013              013              SU003            CONDUIT         3628.0    0.0772    0.0130
  014              014              013              CONDUIT        37310.0    1.0110    0.0130
  015              SU004            013              CONDUIT          873.0    0.0974    0.0130
  016              015              SU004            CONDUIT        13800.0    1.4748    0.0130
  017              SU005            SU004            CONDUIT         6262.0    0.0623    0.0130
  018              016              SU005            CONDUIT        51360.0    0.9447    0.0130
  019              017              SU005            CONDUIT        35848.0    1.0290    0.0130
  020              018              001              CONDUIT         3000.0    0.1000    0.0100
  021              019              018              CONDUIT          400.0    0.5000    0.0100
  022              020              019              CONDUIT         1907.0    0.0367    0.0130
  023              021              020              CONDUIT          400.0    0.0003    0.0100
  024              023              022              CONDUIT        12797.0    1.6857    0.0130
  025              SU006            022              CONDUIT         8078.0    0.0495    0.0130
  026              024              SU006            CONDUIT        20035.0    1.2492    0.0130
  027              025              SU006            CONDUIT         4809.0    0.0478    0.0130
  028              026              025              CONDUIT          400.0    0.0125    0.0110
  029              028              027              CONDUIT         5699.0    0.1105    0.0130
  030              029              028              CONDUIT          400.0    0.0125    0.0110
  031              031              030              CONDUIT         5130.0    0.1170    0.0130
  032              032              031              CONDUIT          762.8    0.0066    0.0100
  033              034              033              CONDUIT         4252.0    0.1223    0.0130
  034              SU007            034              CONDUIT          230.0    4.5874    0.0470
  035              035              SU007            CONDUIT         5640.0    2.5239    0.0130
  036              036              SU007            CONDUIT        44760.0    0.9735    0.0130
  037              037              034              CONDUIT         4254.0    0.1693    0.0130
  038              038              037              CONDUIT          214.3    0.0233    0.0100
  039              SU008            039              CONDUIT         2063.0    0.7998    0.0130
  040              040              SU008            CONDUIT        24289.0    1.0582    0.0160
  041              041              SU008            CONDUIT        35880.0    1.0288    0.0130
  042              042              018              CONDUIT         3000.0    0.1000    0.0100
  043              SU009            042              CONDUIT          400.0    1.9003    0.0100
  044              SU010            SU009            CONDUIT         1190.0    0.0336    0.0130
  045              043              SU010            CONDUIT          400.0    0.0125    0.0110
  046              045              044              CONDUIT         6555.0    0.0397    0.0130
  047              046              045              CONDUIT        21000.0    1.2263    0.0130
  048              047              045              CONDUIT         3050.0    0.0459    0.0130
  049              048              047              CONDUIT          555.0    3.5337    0.0130
  050              049              048              CONDUIT          310.8    0.0161    0.0100
  051              051              050              CONDUIT         7658.0    1.7989    0.0130
  052              052              050              CONDUIT         4220.0    0.0711    0.0130
  053              053              052              CONDUIT         6754.0    0.0785    0.0130
  054              054              053              CONDUIT         6360.0    2.1876    0.0130
  055              055              052              CONDUIT        27121.0    1.1066    0.0130
  056              056              047              CONDUIT         5923.0    0.0388    0.0130
  057              SU011            056              CONDUIT          255.0    5.2622    0.0680
  058              057              SU011            CONDUIT        40685.0    0.9958    0.0130
  059              058              SU011            CONDUIT          779.0    0.0128    0.0130
  060              059              058              CONDUIT          400.0    0.0125    0.0100
  061              061              060              CONDUIT         2881.0    0.0590    0.0130
  062              062              061              CONDUIT        51505.0    0.9409    0.0130
  063              063              056              CONDUIT         1352.0    0.0444    0.0130
  064              064              063              CONDUIT        28240.0    1.1467    0.0130
  065              SU012            063              CONDUIT         9699.0    0.0959    0.0130
  066              065              SU012            CONDUIT        37396.0    1.0175    0.0130
  ISD001           004              003              ORIFICE     
  ISD002           006              005              ORIFICE     
  ISD003           011              010              ORIFICE     
  ISD004           022              021              ORIFICE     
  ISD005           027              026              ORIFICE     
  ISD006           030              029              ORIFICE     
  ISD007           033              032              ORIFICE     
  ISD008           039              038              ORIFICE     
  ISD009           044              043              ORIFICE     
  ISD010           050              049              ORIFICE     
  ISD011           060              059              ORIFICE     
  
  
  *********************
  Cross Section Summary
  *********************
                                        Full     Full     Hyd.     Max.   No. of     Full
  Conduit          Shape               Depth     Area     Rad.    Width  Barrels     Flow
  ---------------------------------------------------------------------------------------
  001              CIRCULAR            18.00   254.47     4.50    18.00        1  3259.33
  002              CIRCULAR            14.00   153.94     3.50    14.00        1  8989.62
  003              RECT_CLOSED         13.45   180.23     3.36    13.40        1  2079.88
  004              CIRCULAR            14.70   169.72     3.67    14.70        1   849.37
  005              RECT_CLOSED         13.45   180.23     3.36    13.40        1  1783.19
  006              CIRCULAR             9.00    63.62     2.25     9.00        1   164.98
  007              CIRCULAR            20.00   314.16     5.00    20.00        1 10388.80
  008              CIRCULAR            14.00   153.94     3.50    14.00        1  1170.96
  009              CIRCULAR            20.00   314.16     5.00    20.00        1 11983.04
  010              CIRCULAR            14.00   153.94     3.50    14.00        1   589.57
  011              CIRCULAR            14.00   153.94     3.50    14.00        1  1126.78
  012              CIRCULAR            20.00   314.16     5.00    20.00        1 10781.17
  013              CIRCULAR            14.00   153.94     3.50    14.00        1  1126.88
  014              CIRCULAR            20.00   314.16     5.00    20.00        1 10558.19
  015              CIRCULAR            11.50   103.87     2.88    11.50        1   749.07
  016              CIRCULAR            20.00   314.16     5.00    20.00        1 12751.80
  017              CIRCULAR            11.50   103.87     2.88    11.50        1   599.09
  018              CIRCULAR            20.00   314.16     5.00    20.00        1 10206.17
  019              CIRCULAR            20.00   314.16     5.00    20.00        1 10651.61
  020              CIRCULAR            18.00   254.47     4.50    18.00        1  3259.33
  021              CIRCULAR            16.00   201.06     4.00    16.00        1  5323.65
  022              CIRCULAR            15.50   188.69     3.88    15.50        1  1019.49
  023              CIRCULAR            15.50   188.69     3.88    15.50        1   109.38
  024              CIRCULAR            20.00   314.16     5.00    20.00        1 13633.18
  025              CIRCULAR            15.50   188.69     3.88    15.50        1  1184.10
  026              CIRCULAR            20.00   314.16     5.00    20.00        1 11736.09
  027              CIRCULAR            15.50   188.69     3.88    15.50        1  1163.71
  028              CIRCULAR            15.50   188.69     3.88    15.50        1   703.10
  029              CIRCULAR            15.50   188.69     3.88    15.50        1  1769.22
  030              CIRCULAR            15.50   188.69     3.88    15.50        1   703.10
  031              CIRCULAR            15.50   188.69     3.88    15.50        1  1819.81
  032              CIRCULAR            15.50   188.69     3.88    15.50        1   560.07
  033              CIRCULAR            15.50   188.69     3.88    15.50        1  1860.87
  034              RECT_CLOSED          4.00    52.80     1.53    13.20        1   475.76
  035              CIRCULAR            20.00   314.16     5.00    20.00        1 16681.59
  036              CIRCULAR            20.00   314.16     5.00    20.00        1 10360.11
  037              CIRCULAR            14.00   153.94     3.50    14.00        1  1668.79
  038              CIRCULAR            12.25   117.86     3.06    12.25        1   564.11
  039              CIRCULAR            12.25   117.86     3.06    12.25        1  2540.90
  040              CIRCULAR             7.50    44.18     1.88     7.50        1   641.78
  041              CIRCULAR            20.00   314.16     5.00    20.00        1 10650.32
  042              CIRCULAR            18.00   254.47     4.50    18.00        1  3259.33
  043              CIRCULAR            16.00   201.06     4.00    16.00        1 10378.58
  044              CIRCULAR            15.50   188.69     3.88    15.50        1   975.59
  045              CIRCULAR            15.50   188.69     3.88    15.50        1   703.10
  046              CIRCULAR            15.50   188.69     3.88    15.50        1  1059.77
  047              CIRCULAR            20.00   314.16     5.00    20.00        1 11627.88
  048              CIRCULAR            15.50   188.69     3.88    15.50        1  1140.05
  049              CIRCULAR            10.50    86.59     2.62    10.50        1  3540.63
  050              CIRCULAR            10.50    86.59     2.62    10.50        1   310.54
  051              CIRCULAR            20.00   314.16     5.00    20.00        1 14083.57
  052              CIRCULAR            10.50    86.59     2.62    10.50        1   502.19
  053              CIRCULAR            10.50    86.59     2.62    10.50        1   527.62
  054              CIRCULAR            20.00   314.16     5.00    20.00        1 15530.74
  055              CIRCULAR            20.00   314.16     5.00    20.00        1 11046.02
  056              CIRCULAR            15.50   188.69     3.88    15.50        1  1048.58
  057              RECT_CLOSED          5.00    78.55     1.90    15.71        1   603.29
  058              CIRCULAR            20.00   314.16     5.00    20.00        1 10478.56
  059              CIRCULAR            11.50   103.87     2.88    11.50        1   271.99
  060              CIRCULAR            11.50   103.87     2.88    11.50        1   348.91
  061              CIRCULAR            11.50   103.87     2.88    11.50        1   583.14
  062              CIRCULAR            20.00   314.16     5.00    20.00        1 10185.39
  063              CIRCULAR             9.00    63.62     2.25     9.00        1   263.04
  064              CIRCULAR            20.00   314.16     5.00    20.00        1 11244.13
  065              CIRCULAR            11.50   103.87     2.88    11.50        1   743.36
  066              CIRCULAR            20.00   314.16     5.00    20.00        1 10591.66
  
  
  
  *********************************************************
  NOTE: The summary statistics displayed in this report are
  based on results found at every computational time step,  
  not just on results from each reporting time step.
  *********************************************************
  
  ****************
  Analysis Options
  ****************
  Flow Units ............... CFS
  Process Models:
    Rainfall/Runoff ........ YES
    RDII ................... NO
    Snowmelt ............... NO
    Groundwater ............ NO
    Flow Routing ........... YES
    Ponding Allowed ........ NO
    Water Quality .......... YES
  Infiltration Method ...... HORTON
  Flow Routing Method ...... DYNWAVE
  Surcharge Method ......... EXTRAN
  Starting Date ............ 01/01/2017 00:00:00
  Ending Date .............. 01/16/2017 00:00:00
  Antecedent Dry Days ...... 0.0
  Report Time Step ......... 00:15:00
  Wet Time Step ............ 00:01:00
  Dry Time Step ............ 00:01:00
  Routing Time Step ........ 10.00 sec
  Variable Time Step ....... YES
  Maximum Trials ........... 8
  Number of Threads ........ 1
  Head Tolerance ........... 0.005000 ft
  
  
  **************************        Volume         Depth
  Runoff Quantity Continuity     acre-feet        inches
  **************************     ---------       -------
  Total Precipitation ......      1925.595         1.390
  Evaporation Loss .........         0.000         0.000
  Infiltration Loss ........      1139.460         0.822
  Surface Runoff ...........       760.816         0.549
  Final Storage ............        25.536         0.018
  Continuity Error (%) .....        -0.011
  
  
  **************************           TSS
  Runoff Quality Continuity            lbs
  **************************    ----------
  Initial Buildup ..........         0.000
  Surface Buildup ..........    501298.038
  Wet Deposition ...........         0.000
  Sweeping Removal .........         0.000
  Infiltration Loss ........         0.000
  BMP Removal ..............         0.000
  Surface Runoff ...........    264227.678
  Remaining Buildup ........    237070.360
  Continuity Error (%) .....         0.000
  
  
  **************************        Volume        Volume
  Flow Routing Continuity        acre-feet      10^6 gal
  **************************     ---------     ---------
  Dry Weather Inflow .......      5954.565      1940.384
  Wet Weather Inflow .......       760.816       247.923
  Groundwater Inflow .......         0.000         0.000
  RDII Inflow ..............         0.000         0.000
  External Inflow ..........         0.000         0.000
  External Outflow .........      6583.182      2145.228
  Flooding Loss ............         0.000         0.000
  Evaporation Loss .........         0.000         0.000
  Exfiltration Loss ........         0.000         0.000
  Initial Stored Volume ....         0.003         0.001
  Final Stored Volume ......       140.418        45.757
  Continuity Error (%) .....        -0.122
  
  
  **************************           TSS
  Quality Routing Continuity           lbs
  **************************    ----------
  Dry Weather Inflow .......   2491597.904
  Wet Weather Inflow .......    264227.678
  Groundwater Inflow .......         0.000
  RDII Inflow ..............         0.000
  External Inflow ..........         0.000
  External Outflow .........   2662183.355
  Flooding Loss ............         0.000
  Exfiltration Loss ........         0.000
  Mass Reacted .............      3600.173
  Initial Stored Mass ......         0.000
  Final Stored Mass ........     76408.143
  Continuity Error (%) .....         0.495
  
  
  *************************
  Highest Continuity Errors
  *************************
  Node SU005 (1.58%)
  Node 061 (1.31%)
  Node 006 (1.23%)
  Node 052 (1.19%)
  Node SU011 (1.08%)
  
  
  ***************************
  Time-Step Critical Elements
  ***************************
  None
  
  
  ********************************
  Highest Flow Instability Indexes
  ********************************
  Link ISD011 (33)
  Link 060 (32)
  
  
  *************************
  Routing Time Step Summary
  *************************
  Minimum Time Step           :     9.50 sec
  Average Time Step           :    10.00 sec
  Maximum Time Step           :    10.00 sec
  Percent in Steady State     :     0.00
  Average Iterations per Step :     2.10
  Percent Not Converging      :     0.00
  
  
  ***************************
  Subcatchment Runoff Summary
  ***************************
  
  ------------------------------------------------------------------------------------------------------------------------------
                            Total      Total      Total      Total     Imperv       Perv      Total       Total     Peak  Runoff
                           Precip      Runon       Evap      Infil     Runoff     Runoff     Runoff      Runoff   Runoff   Coeff
  Subcatchment                 in         in         in         in         in         in         in    10^6 gal      CFS
  ------------------------------------------------------------------------------------------------------------------------------
  S001                       1.42       0.00       0.00       0.81       0.59       0.00       0.59       22.93   173.37   0.416
  S002                       1.06       0.00       0.00       0.61       0.44       0.00       0.44        4.88    37.33   0.412
  S003                       1.42       0.00       0.00       0.92       0.48       0.00       0.48       13.52   102.18   0.339
  S004                       1.42       0.00       0.00       0.85       0.55       0.00       0.55       17.25   130.44   0.387
  S005                       1.41       0.00       0.00       0.87       0.52       0.00       0.52        4.10    35.68   0.368
  S006                       1.46       0.00       0.00       0.80       0.64       0.00       0.64       31.08   293.08   0.436
  S007                       1.41       0.00       0.00       0.82       0.57       0.00       0.57       16.77   145.96   0.407
  S008                       1.26       0.00       0.00       0.31       0.91       0.00       0.91        4.29    46.99   0.723
  S009                       1.41       0.00       0.00       0.83       0.56       0.00       0.56        7.31    63.60   0.398
  S010                       1.46       0.00       0.00       0.91       0.54       0.00       0.54        0.69     6.48   0.368
  S011                       1.46       0.00       0.00       0.92       0.52       0.00       0.52       22.65   213.80   0.359
  S012                       1.59       0.00       0.00       0.95       0.62       0.00       0.62        7.65    51.47   0.389
  S013                       1.59       0.00       0.00       0.95       0.62       0.00       0.62       13.43    90.30   0.389
  S014                       1.20       0.00       0.00       0.65       0.53       0.00       0.53        6.23    56.00   0.443
  S015                       1.20       0.00       0.00       0.72       0.46       0.00       0.46        1.22    10.94   0.385
  S016                       1.46       0.00       0.00       0.89       0.55       0.00       0.55        0.93     8.77   0.378
  S017                       1.46       0.00       0.00       0.82       0.62       0.00       0.62       12.11   114.20   0.427
  S018                       1.20       0.00       0.00       0.78       0.40       0.00       0.40       11.96   107.54   0.337
  S019                       1.46       0.00       0.00       0.95       0.50       0.00       0.50       22.21   209.64   0.339
  S020                       1.20       0.00       0.00       0.71       0.47       0.00       0.47        9.85    88.56   0.395
  S021                       1.20       0.00       0.00       0.60       0.58       0.00       0.58       16.85   151.25   0.481
  
  
  ****************************
  Subcatchment Washoff Summary
  ****************************
  
  ----------------------------------
                                 TSS
  Subcatchment                   lbs
  ----------------------------------
  S001                     24966.782
  S002                      5237.469
  S003                     14700.964
  S004                     18827.916
  S005                      4364.881
  S006                     31658.438
  S007                     17829.975
  S008                      4149.085
  S009                      7773.869
  S010                       701.678
  S011                     23138.224
  S012                      7691.624
  S013                     13494.076
  S014                      7317.183
  S015                      1424.537
  S016                       950.352
  S017                     12351.774
  S018                     13785.901
  S019                     22612.445
  S020                     11544.631
  S021                     19705.875
  ----------------------------------
  System                  264227.678
  
  
  ******************
  Node Depth Summary
  ******************
  
  ---------------------------------------------------------------------------------
                                 Average  Maximum  Maximum  Time of Max    Reported
                                   Depth    Depth      HGL   Occurrence   Max Depth
  Node                 Type         Feet     Feet     Feet  days hr:min        Feet
  ---------------------------------------------------------------------------------
  001                  JUNCTION     3.13     5.43   572.19     3  04:34        5.43
  002                  JUNCTION     1.29     2.51   584.07    10  16:34        2.51
  003                  JUNCTION     2.06     3.33   584.99    10  16:33        3.33
  004                  JUNCTION     2.34     4.16   585.82    10  16:33        4.16
  005                  JUNCTION     1.57     2.99   589.30    10  16:19        2.99
  006                  JUNCTION     1.57     3.14   589.50    10  16:12        3.14
  007                  JUNCTION     0.56     1.63  1015.77     3  01:17        1.62
  008                  JUNCTION     2.22     3.65   590.91    10  16:32        3.65
  009                  JUNCTION     0.28     0.77   823.85     3  01:16        0.77
  010                  JUNCTION     2.40     3.86   591.17    10  16:30        3.86
  011                  JUNCTION     2.48     4.17   591.53    10  16:29        4.17
  012                  JUNCTION     0.47     1.27   939.43     3  01:16        1.27
  013                  JUNCTION     2.11     3.52   597.88     3  04:14        3.52
  014                  JUNCTION     0.50     1.42   972.98     3  01:16        1.42
  015                  JUNCTION     0.22     0.77   801.73    12  10:15        0.77
  016                  JUNCTION     0.63     1.89  1088.45    12  11:16        1.89
  017                  JUNCTION     0.48     1.48   971.70    12  10:16        1.48
  018                  JUNCTION     2.38     4.31   574.07     3  04:35        4.31
  019                  JUNCTION     1.07     1.98   573.74     3  04:27        1.98
  020                  JUNCTION     2.32     3.59   576.05     3  04:24        3.59
  021                  JUNCTION     2.40     3.81   576.27     3  04:23        3.80
  022                  JUNCTION     2.44     4.05   576.51     3  04:23        4.05
  023                  JUNCTION     0.17     0.82   788.97    12  11:15        0.81
  024                  JUNCTION     0.31     1.02   827.74    12  10:15        1.02
  025                  JUNCTION     1.87     4.30   583.06     3  03:11        4.30
  026                  JUNCTION     1.96     4.39   583.20     3  03:11        4.38
  027                  JUNCTION     1.95     4.55   583.41     3  03:10        4.54
  028                  JUNCTION     1.53     3.44   588.60     3  02:57        3.43
  029                  JUNCTION     1.77     3.73   588.94     3  02:55        3.72
  030                  JUNCTION     1.77     4.01   589.27     3  02:53        4.00
  031                  JUNCTION     1.51     3.42   594.68     3  02:44        3.42
  032                  JUNCTION     1.88     3.90   595.21     3  02:41        3.89
  033                  JUNCTION     1.87     4.16   595.52     3  02:39        4.15
  034                  JUNCTION     1.50     3.41   599.97     3  02:31        3.41
  035                  JUNCTION     0.06     0.30   759.46    12  11:01        0.30
  036                  JUNCTION     0.62     1.85  1054.41    12  11:15        1.85
  037                  JUNCTION     0.93     2.43   606.19    10  15:51        2.42
  038                  JUNCTION     1.09     2.62   606.43    10  15:50        2.62
  039                  JUNCTION     1.08     2.93   606.79    10  15:48        2.93
  040                  JUNCTION     0.45     1.39   878.75    10  15:00        1.39
  041                  JUNCTION     0.42     1.24   990.70    10  15:00        1.24
  042                  JUNCTION     1.87     3.29   576.05     3  04:52        3.29
  043                  JUNCTION     2.45     4.02   584.83     3  04:47        4.02
  044                  JUNCTION     2.50     4.40   585.26     3  04:47        4.40
  045                  JUNCTION     2.81     5.06   588.52     3  04:38        5.06
  046                  JUNCTION     0.29     0.92   841.88     3  02:30        0.92
  047                  JUNCTION     2.53     4.84   589.70     3  03:35        4.84
  048                  JUNCTION     0.39     0.84   605.30     3  03:03        0.84
  049                  JUNCTION     0.80     1.54   606.05     3  03:02        1.54
  050                  JUNCTION     0.79     1.74   606.30     3  03:02        1.74
  051                  JUNCTION     0.11     0.42   742.72    12  11:04        0.42
  052                  JUNCTION     1.03     2.28   609.84     3  02:45        2.28
  053                  JUNCTION     0.28     0.68   613.54     3  02:29        0.68
  054                  JUNCTION     0.08     0.37   752.33    12  11:01        0.36
  055                  JUNCTION     0.40     1.28   908.95    12  11:15        1.28
  056                  JUNCTION     2.45     4.59   591.75     3  03:24        4.59
  057                  JUNCTION     0.48     1.28  1010.98     3  02:30        1.28
  058                  JUNCTION     2.58     3.46   608.12     3  03:08        3.46
  059                  JUNCTION     2.55     3.46   608.17     3  03:08        3.46
  060                  JUNCTION     2.51     3.49   608.25     3  03:09        3.48
  061                  JUNCTION     1.33     2.58   609.04     3  03:04        2.58
  062                  JUNCTION     0.60     1.63  1092.68    12  11:15        1.63
  063                  JUNCTION     1.88     3.50   593.26    10  17:17        3.50
  064                  JUNCTION     0.40     1.16   914.72     3  02:30        1.16
  065                  JUNCTION     0.48     1.52   981.05     3  02:30        1.52
  1                    OUTFALL      2.90     5.15   568.91     3  04:37        5.15
  SU001                STORAGE      1.00     1.66   580.04    10  16:35        1.65
  SU002                STORAGE      1.41     2.83   589.09    10  16:28        2.83
  SU003                STORAGE      2.34     3.86   595.42    10  16:18        3.86
  SU004                STORAGE      1.81     2.96   600.42     3  04:00        2.96
  SU005                STORAGE      2.00     3.54   604.90     3  03:09        3.54
  SU006                STORAGE      2.09     4.08   580.54     3  03:56        4.08
  SU007                STORAGE      0.44     1.32   618.18     3  02:35        1.32
  SU008                STORAGE      0.67     1.74   622.10    10  15:43        1.74
  SU009                STORAGE      0.96     1.67   582.03     3  04:50        1.67
  SU010                STORAGE      2.24     3.67   584.43     3  04:48        3.67
  SU011                STORAGE      2.64     3.39   607.95     3  03:07        3.38
  SU012                STORAGE      1.16     2.51   601.57    10  16:53        2.50
  
  
  *******************
  Node Inflow Summary
  *******************
  
  -------------------------------------------------------------------------------------------------
                                  Maximum  Maximum                  Lateral       Total        Flow
                                  Lateral    Total  Time of Max      Inflow      Inflow     Balance
                                   Inflow   Inflow   Occurrence      Volume      Volume       Error
  Node                 Type           CFS      CFS  days hr:min    10^6 gal    10^6 gal     Percent
  -------------------------------------------------------------------------------------------------
  001                  JUNCTION      0.00   657.80     3  04:33           0    2.15e+03       0.031
  002                  JUNCTION      0.00   265.14    10  16:33           0         911       0.015
  003                  JUNCTION      0.00   265.14    10  16:33           0         911       0.008
  004                  JUNCTION      0.00   265.33    10  16:28           0         912       0.053
  005                  JUNCTION      0.00    73.73     3  01:50           0         182       0.015
  006                  JUNCTION      3.61   143.64     3  01:17          35         184       1.240
  007                  JUNCTION    184.29   184.29    12  10:00         149         149      -0.085
  008                  JUNCTION      1.32   199.97    10  16:15        12.8         732       0.180
  009                  JUNCTION     40.45    40.45    12  10:00        40.7        40.7      -0.083
  010                  JUNCTION      0.00   186.38    10  16:26           0         678       0.011
  011                  JUNCTION      0.00   187.14    10  16:18           0         679       0.064
  012                  JUNCTION    110.09   110.09    12  10:00         105         105      -0.024
  013                  JUNCTION      3.41   174.82     3  01:19        33.1         551       0.498
  014                  JUNCTION    139.27   139.27    12  10:00         119         119      -0.009
  015                  JUNCTION     37.89    37.89    12  10:15        29.3        29.3      -0.061
  016                  JUNCTION    308.66   308.66    12  11:00         190         190       0.068
  017                  JUNCTION    154.29   154.29    12  10:15         112         112       0.007
  018                  JUNCTION      0.00   409.95     3  04:30           0    1.22e+03       0.040
  019                  JUNCTION      0.00   173.17     3  04:25           0         479       0.012
  020                  JUNCTION      0.00   173.13     3  04:24           0         479       0.030
  021                  JUNCTION      0.00   173.12     3  04:23           0         479       0.019
  022                  JUNCTION      0.00   180.10     3  04:02           0         481       0.341
  023                  JUNCTION     48.53    48.53    12  11:15        19.8        19.8      -0.103
  024                  JUNCTION     67.34    67.34    12  10:15        49.9        49.9      -0.043
  025                  JUNCTION      0.00   185.61     3  03:10           0         363       0.065
  026                  JUNCTION      0.00   185.78     3  03:08           0         363       0.019
  027                  JUNCTION      0.00   190.69     3  02:57           0         364       0.106
  028                  JUNCTION      0.00   191.80     3  02:51           0         364       0.049
  029                  JUNCTION      0.00   192.03     3  02:50           0         364       0.017
  030                  JUNCTION      0.00   194.83     3  02:44           0         364       0.084
  031                  JUNCTION      0.00   195.80     3  02:38           0         364       0.051
  032                  JUNCTION      0.00   196.05     3  02:37           0         364       0.023
  033                  JUNCTION      0.00   198.04     3  02:31           0         365       0.075
  034                  JUNCTION      0.00   199.88     3  02:24           0         365       0.075
  035                  JUNCTION      6.86     6.86    12  11:00        4.56        4.56      -0.351
  036                  JUNCTION    227.58   227.58    12  11:00         163         163       0.084
  037                  JUNCTION      0.00   109.60    10  15:47           0         152       0.046
  038                  JUNCTION      0.00   109.68    10  15:46           0         152       0.016
  039                  JUNCTION      0.00   110.10    10  15:43           0         152       0.040
  040                  JUNCTION     56.16    56.16    10  15:30        48.4        48.4       0.010
  041                  JUNCTION     98.44    98.44    10  15:30        84.2        84.2      -0.022
  042                  JUNCTION      0.00   237.83     3  04:50           0         741       0.024
  043                  JUNCTION      0.00   234.79     3  04:47           0         712       0.013
  044                  JUNCTION      0.00   234.93     3  04:40           0         712       0.082
  045                  JUNCTION      1.20   254.79     3  03:23        11.6         715       0.403
  046                  JUNCTION     59.73    59.73    12  11:00          44          44      -0.133
  047                  JUNCTION      0.26   245.25     3  03:19        2.52         660       0.108
  048                  JUNCTION      0.00    45.98     3  03:03           0        90.7       0.003
  049                  JUNCTION      0.00    45.98     3  03:02           0        90.7       0.016
  050                  JUNCTION      0.00    49.86     3  02:32           0        90.9       0.199
  051                  JUNCTION     11.80    11.80    12  11:00        9.94        9.94      -0.149
  052                  JUNCTION      0.00    94.03    12  11:15           0        81.9       1.202
  053                  JUNCTION      0.00     8.65    12  11:01           0        6.76       0.535
  054                  JUNCTION      9.34     9.34    12  11:00        6.74        6.74      -0.204
  055                  JUNCTION    120.37   120.37    12  11:00        75.1        75.1      -0.120
  056                  JUNCTION      0.00   201.85     3  03:13           0         567       0.078
  057                  JUNCTION    117.00   117.00    12  11:00         108         108       0.164
  058                  JUNCTION      0.00    68.11     3  03:12           0         202       0.038
  059                  JUNCTION      0.00    68.07     3  03:10           0         202       0.032
  060                  JUNCTION      3.81    68.15     3  03:04        36.9         202       0.106
  061                  JUNCTION      0.00   138.09    12  11:16           0         168       1.328
  062                  JUNCTION    223.90   223.90    12  11:00         168         168       0.028
  063                  JUNCTION      0.00   141.06    10  16:32           0         236       0.930
  064                  JUNCTION     95.25    95.25    12  11:00        77.7        77.7      -0.099
  065                  JUNCTION    160.61   160.61    12  11:00         112         112      -0.062
  1                    OUTFALL       0.00   657.87     3  04:37           0    2.15e+03       0.000
  SU001                STORAGE       1.65   266.80    10  16:35          16         927       0.011
  SU002                STORAGE       0.00   265.52    10  16:24           0         912       0.033
  SU003                STORAGE       2.93   218.55    10  15:32        28.4         682       0.457
  SU004                STORAGE       0.77   121.79     3  03:39        7.46         400       0.250
  SU005                STORAGE       7.00   235.89    12  11:15        67.9         369       1.608
  SU006                STORAGE       5.16   206.75     3  03:26          50         463       0.430
  SU007                STORAGE       4.80   162.34    12  11:16        46.5         214       0.295
  SU008                STORAGE       2.06   131.25    10  15:00          20         153       0.599
  SU009                STORAGE       3.04   237.83     3  04:49        29.5         741       0.004
  SU010                STORAGE       0.00   234.79     3  04:48           0         711       0.014
  SU011                STORAGE       2.84   144.96     3  02:31        27.5         337       1.091
  SU012                STORAGE       4.95   128.72     3  02:30          48         160       0.927
  
  
  **********************
  Node Surcharge Summary
  **********************
  
  No nodes were surcharged.
  
  
  *********************
  Node Flooding Summary
  *********************
  
  No nodes were flooded.
  
  
  **********************
  Storage Volume Summary
  **********************
  
  --------------------------------------------------------------------------------------------------
                         Average     Avg  Evap Exfil       Maximum     Max    Time of Max    Maximum
                          Volume    Pcnt  Pcnt  Pcnt        Volume    Pcnt     Occurrence    Outflow
  Storage Unit          1000 ft3    Full  Loss  Loss      1000 ft3    Full    days hr:min        CFS
  --------------------------------------------------------------------------------------------------
  SU001                    0.913       0     0     0         1.550       0      10  16:35     266.79
  SU002                    1.287       0     0     0         2.691       0      10  16:28     265.33
  SU003                    1.139       0     0     0         2.005       0      10  16:18     187.14
  SU004                    0.869       0     0     0         1.497       0       3  04:00     118.70
  SU005                    1.824       0     0     0         3.325       0       3  03:09     109.13
  SU006                    1.879       0     0     0         3.764       0       3  03:56     177.41
  SU007                    9.575       0     0     0        29.216       0       3  02:35     126.18
  SU008                    0.308       0     0     0         0.862       0      10  15:43     110.10
  SU009                    4.375       0     0     0         7.823       0       3  04:50     237.83
  SU010                    6.105       0     0     0        11.229       0       3  04:48     234.79
  SU011                   26.375       7     0     0        33.896       9       3  03:07     116.60
  SU012                    5.056       0     0     0        10.915       0      10  16:53      77.37
  
  
  ***********************
  Outfall Loading Summary
  ***********************
  
  -------------------------------------------------------------------------
                         Flow       Avg       Max       Total         Total
                         Freq      Flow      Flow      Volume           TSS
  Outfall Node           Pcnt       CFS       CFS    10^6 gal           lbs
  -------------------------------------------------------------------------
  1                    100.00    221.28    657.87    2145.069   2662194.436
  -------------------------------------------------------------------------
  System               100.00    221.28    657.87    2145.069   2662194.436
  
  
  ********************
  Link Flow Summary
  ********************
  
  -----------------------------------------------------------------------------
                                 Maximum  Time of Max   Maximum    Max/    Max/
                                  |Flow|   Occurrence   |Veloc|    Full    Full
  Link                 Type          CFS  days hr:min    ft/sec    Flow   Depth
  -----------------------------------------------------------------------------
  001                  CONDUIT    657.87     3  04:37     10.54    0.20    0.29
  002                  CONDUIT    266.79    10  16:36     10.27    0.03    0.25
  003                  CONDUIT    265.15    10  16:35      9.50    0.13    0.15
  004                  CONDUIT    265.14    10  16:33     11.08    0.31    0.20
  005                  CONDUIT    265.33    10  16:28      5.67    0.15    0.26
  006                  CONDUIT     73.51     3  01:51      4.71    0.45    0.32
  007                  CONDUIT    140.03     3  01:17      9.42    0.01    0.11
  008                  CONDUIT    197.62    10  16:37      7.63    0.17    0.23
  009                  CONDUIT     33.10     3  01:16      4.20    0.00    0.10
  010                  CONDUIT    186.34    10  16:27      5.67    0.32    0.27
  011                  CONDUIT    187.14    10  16:18      5.16    0.17    0.29
  012                  CONDUIT     86.47     3  01:16      5.49    0.01    0.12
  013                  CONDUIT    156.09     3  04:15      4.87    0.14    0.26
  014                  CONDUIT    107.51     3  01:17      6.51    0.01    0.12
  015                  CONDUIT    118.70     3  04:01      6.42    0.16    0.23
  016                  CONDUIT     35.37    12  10:15      4.33    0.00    0.09
  017                  CONDUIT    109.13     3  03:40      4.61    0.18    0.28
  018                  CONDUIT    189.93    12  11:16      9.31    0.02    0.13
  019                  CONDUIT    118.54    12  10:16      8.40    0.01    0.11
  020                  CONDUIT    409.68     3  04:35      7.37    0.13    0.27
  021                  CONDUIT    173.16     3  04:27      6.22    0.03    0.20
  022                  CONDUIT    173.17     3  04:25      7.53    0.17    0.18
  023                  CONDUIT    173.13     3  04:24      5.01    1.58    0.24
  024                  CONDUIT     42.46    12  11:15      5.40    0.00    0.11
  025                  CONDUIT    177.41     3  04:03      4.54    0.15    0.26
  026                  CONDUIT     59.59    12  10:15      5.08    0.01    0.12
  027                  CONDUIT    186.67     3  03:17      4.85    0.16    0.26
  028                  CONDUIT    185.61     3  03:10      4.29    0.26    0.28
  029                  CONDUIT    190.69     3  02:57      5.18    0.11    0.26
  030                  CONDUIT    191.80     3  02:51      5.85    0.27    0.23
  031                  CONDUIT    194.83     3  02:44      5.68    0.11    0.24
  032                  CONDUIT    195.80     3  02:38      5.78    0.35    0.24
  033                  CONDUIT    198.04     3  02:31      5.60    0.11    0.24
  034                  CONDUIT    126.18     3  02:35      7.22    0.27    0.33
  035                  CONDUIT      6.35    12  11:01      3.67    0.00    0.04
  036                  CONDUIT    152.09    12  11:16     15.41    0.01    0.08
  037                  CONDUIT    109.23    10  15:51      5.42    0.07    0.20
  038                  CONDUIT    109.60    10  15:47      6.28    0.19    0.21
  039                  CONDUIT    110.10    10  15:43      7.06    0.04    0.19
  040                  CONDUIT     47.90    10  15:00      9.33    0.07    0.20
  041                  CONDUIT     81.30    10  15:00      9.96    0.01    0.07
  042                  CONDUIT    237.82     3  04:52      6.20    0.07    0.21
  043                  CONDUIT    237.83     3  04:50     11.97    0.02    0.16
  044                  CONDUIT    234.79     3  04:49     10.81    0.24    0.17
  045                  CONDUIT    234.79     3  04:48      6.43    0.33    0.25
  046                  CONDUIT    234.93     3  04:40      4.82    0.22    0.31
  047                  CONDUIT     47.44     3  02:30      4.45    0.00    0.14
  048                  CONDUIT    241.27     3  03:27      4.87    0.21    0.32
  049                  CONDUIT     45.98     3  03:03      3.20    0.01    0.27
  050                  CONDUIT     45.98     3  03:03      8.50    0.15    0.11
  051                  CONDUIT     10.61    12  11:04      4.20    0.00    0.05
  052                  CONDUIT     43.35     3  02:50      3.78    0.09    0.19
  053                  CONDUIT      4.40     3  02:29      0.70    0.01    0.14
  054                  CONDUIT      8.65    12  11:01      6.09    0.00    0.02
  055                  CONDUIT     90.71    12  11:15     10.05    0.01    0.08
  056                  CONDUIT    200.49     3  03:24      4.22    0.19    0.30
  057                  CONDUIT    116.60     3  03:07      5.74    0.19    0.26
  058                  CONDUIT     86.02     3  02:31      5.43    0.01    0.11
  059                  CONDUIT     68.19     3  03:14      2.63    0.25    0.30
  060                  CONDUIT     68.11     3  03:12      2.59    0.20    0.30
  061                  CONDUIT     64.34     3  03:04      2.94    0.11    0.26
  062                  CONDUIT    138.09    12  11:16     11.08    0.01    0.10
  063                  CONDUIT     98.37    10  17:20      5.40    0.37    0.34
  064                  CONDUIT     74.76     3  02:30      6.02    0.01    0.11
  065                  CONDUIT     77.37    10  16:53      3.67    0.10    0.26
  066                  CONDUIT    123.77     3  02:30     10.76    0.01    0.10
  ISD001               ORIFICE    265.14    10  16:33                      0.28
  ISD002               ORIFICE     73.73     3  01:50                      0.35
  ISD003               ORIFICE    186.38    10  16:26                      0.30
  ISD004               ORIFICE    173.12     3  04:23                      0.26
  ISD005               ORIFICE    185.78     3  03:08                      0.29
  ISD006               ORIFICE    192.03     3  02:50                      0.26
  ISD007               ORIFICE    196.05     3  02:37                      0.27
  ISD008               ORIFICE    109.68    10  15:46                      0.24
  ISD009               ORIFICE    234.79     3  04:47                      0.28
  ISD010               ORIFICE     45.98     3  03:02                      0.17
  ISD011               ORIFICE     68.07     3  03:10                      0.30
  
  
  ***************************
  Flow Classification Summary
  ***************************
  
  -------------------------------------------------------------------------------------
                      Adjusted    ---------- Fraction of Time in Flow Class ---------- 
                       /Actual         Up    Down  Sub   Sup   Up    Down  Norm  Inlet 
  Conduit               Length    Dry  Dry   Dry   Crit  Crit  Crit  Crit  Ltd   Ctrl  
  -------------------------------------------------------------------------------------
  001                     1.00   0.00  0.00  0.00  0.99  0.01  0.00  0.00  0.00  0.00
  002                     1.00   0.00  0.00  0.00  0.91  0.09  0.00  0.00  1.00  0.00
  003                     1.00   0.00  0.00  0.00  0.84  0.16  0.00  0.00  0.01  0.00
  004                     1.00   0.00  0.00  0.00  0.00  0.99  0.00  0.00  0.00  0.00
  005                     1.00   0.00  0.00  0.00  1.00  0.00  0.00  0.00  0.99  0.00
  006                     1.00   0.00  0.00  0.00  0.99  0.01  0.00  0.00  0.00  0.00
  007                     1.00   0.00  0.00  0.00  0.98  0.02  0.00  0.00  1.00  0.00
  008                     1.00   0.00  0.00  0.00  0.65  0.35  0.00  0.00  0.00  0.00
  009                     1.00   0.00  0.00  0.00  1.00  0.00  0.00  0.00  1.00  0.00
  010                     1.00   0.00  0.00  0.00  1.00  0.00  0.00  0.00  0.00  0.00
  011                     1.00   0.00  0.00  0.00  1.00  0.00  0.00  0.00  0.99  0.00
  012                     1.00   0.00  0.00  0.00  0.99  0.01  0.00  0.00  1.00  0.00
  013                     1.00   0.00  0.00  0.00  1.00  0.00  0.00  0.00  1.00  0.00
  014                     1.00   0.00  0.00  0.00  0.99  0.01  0.00  0.00  1.00  0.00
  015                     1.00   0.00  0.00  0.00  0.00  0.00  0.00  1.00  0.00  0.00
  016                     1.00   0.00  0.00  0.00  1.00  0.00  0.00  0.00  1.00  0.00
  017                     1.00   0.00  0.00  0.00  1.00  0.00  0.00  0.00  0.00  0.00
  018                     1.00   0.00  0.00  0.00  0.99  0.01  0.00  0.00  1.00  0.00
  019                     1.00   0.00  0.00  0.00  0.99  0.01  0.00  0.00  1.00  0.00
  020                     1.00   0.00  0.00  0.00  1.00  0.00  0.00  0.00  1.00  0.00
  021                     1.00   0.00  0.00  0.00  1.00  0.00  0.00  0.00  1.00  0.00
  022                     1.00   0.00  0.00  0.00  1.00  0.00  0.00  0.00  0.00  0.00
  023                     1.00   0.00  0.00  0.00  1.00  0.00  0.00  0.00  0.00  0.00
  024                     1.00   0.00  0.00  0.00  1.00  0.00  0.00  0.00  1.00  0.00
  025                     1.00   0.00  0.00  0.00  1.00  0.00  0.00  0.00  0.98  0.00
  026                     1.00   0.00  0.00  0.00  1.00  0.00  0.00  0.00  1.00  0.00
  027                     1.00   0.00  0.00  0.00  1.00  0.00  0.00  0.00  0.97  0.00
  028                     1.00   0.00  0.00  0.00  1.00  0.00  0.00  0.00  0.00  0.00
  029                     1.00   0.00  0.00  0.00  1.00  0.00  0.00  0.00  0.99  0.00
  030                     1.00   0.00  0.00  0.00  1.00  0.00  0.00  0.00  0.00  0.00
  031                     1.00   0.00  0.00  0.00  1.00  0.00  0.00  0.00  0.99  0.00
  032                     1.00   0.00  0.00  0.00  1.00  0.00  0.00  0.00  0.00  0.00
  033                     1.00   0.00  0.00  0.00  1.00  0.00  0.00  0.00  1.00  0.00
  034                     1.00   0.00  0.00  0.00  0.00  0.00  0.00  1.00  0.00  0.00
  035                     1.00   0.00  0.00  0.00  1.00  0.00  0.00  0.00  1.00  0.00
  036                     1.00   0.00  0.00  0.00  0.00  1.00  0.00  0.00  0.00  0.00
  037                     1.00   0.00  0.00  0.00  1.00  0.00  0.00  0.00  1.00  0.00
  038                     1.00   0.00  0.00  0.00  1.00  0.00  0.00  0.00  0.00  0.00
  039                     1.00   0.00  0.00  0.00  0.99  0.01  0.00  0.00  1.00  0.00
  040                     1.00   0.00  0.00  0.00  0.96  0.04  0.00  0.00  0.99  0.00
  041                     1.00   0.00  0.00  0.00  0.75  0.25  0.00  0.00  0.99  0.00
  042                     1.00   0.00  0.00  0.00  1.00  0.00  0.00  0.00  1.00  0.00
  043                     1.00   0.00  0.00  0.00  0.00  1.00  0.00  0.00  1.00  0.00
  044                     1.00   0.00  0.00  0.00  0.02  0.98  0.00  0.00  0.01  0.00
  045                     1.00   0.00  0.00  0.00  1.00  0.00  0.00  0.00  0.00  0.00
  046                     1.00   0.00  0.00  0.00  1.00  0.00  0.00  0.00  0.00  0.00
  047                     1.00   0.00  0.00  0.00  1.00  0.00  0.00  0.00  1.00  0.00
  048                     1.00   0.00  0.00  0.00  1.00  0.00  0.00  0.00  0.91  0.00
  049                     1.00   0.00  0.00  0.00  1.00  0.00  0.00  0.00  1.00  0.00
  050                     1.00   0.00  0.00  0.00  0.01  0.99  0.00  0.00  0.00  0.00
  051                     1.00   0.00  0.00  0.00  1.00  0.00  0.00  0.00  1.00  0.00
  052                     1.00   0.00  0.00  0.00  1.00  0.00  0.00  0.00  0.00  0.00
  053                     1.00   0.00  0.00  0.00  1.00  0.00  0.00  0.00  1.00  0.00
  054                     1.00   0.00  0.00  0.00  0.99  0.01  0.00  0.00  1.00  0.00
  055                     1.00   0.00  0.00  0.00  0.99  0.01  0.00  0.00  1.00  0.00
  056                     1.00   0.00  0.00  0.00  1.00  0.00  0.00  0.00  0.99  0.00
  057                     1.00   0.01  0.00  0.00  0.00  0.00  0.00  0.99  0.00  0.00
  058                     1.00   0.00  0.00  0.00  0.99  0.01  0.00  0.00  1.00  0.00
  059                     1.00   0.00  0.00  0.00  1.00  0.00  0.00  0.00  0.00  0.00
  060                     1.00   0.00  0.00  0.00  1.00  0.00  0.00  0.00  0.00  0.00
  061                     1.00   0.00  0.00  0.00  1.00  0.00  0.00  0.00  1.00  0.00
  062                     1.00   0.00  0.00  0.00  0.98  0.02  0.00  0.00  0.99  0.00
  063                     1.00   0.00  0.00  0.00  0.02  0.00  0.00  0.98  0.00  0.00
  064                     1.00   0.00  0.00  0.00  0.99  0.01  0.00  0.00  1.00  0.00
  065                     1.00   0.00  0.00  0.00  1.00  0.00  0.00  0.00  0.99  0.00
  066                     1.00   0.00  0.00  0.00  0.98  0.02  0.00  0.00  1.00  0.00
  
  
  *************************
  Conduit Surcharge Summary
  *************************
  
  ----------------------------------------------------------------------------
                                                           Hours        Hours 
                         --------- Hours Full --------   Above Full   Capacity
  Conduit                Both Ends  Upstream  Dnstream   Normal Flow   Limited
  ----------------------------------------------------------------------------
  023                         0.01      0.01      0.01      8.87         0.01
  
  
  ***************************
  Link Pollutant Load Summary
  ***************************
  
  ----------------------------------
                                 TSS
  Link                           lbs
  ----------------------------------
  001                      2.662e+06
  002                      1.146e+06
  003                      1.146e+06
  004                      1.146e+06
  005                      1.147e+06
  006                      2.284e+05
  007                      2.371e+05
  008                      9.191e+05
  009                      6.580e+04
  010                      8.559e+05
  011                      8.568e+05
  012                      1.684e+05
  013                      6.942e+05
  014                      1.903e+05
  015                      5.090e+05
  016                      4.699e+04
  017                      4.640e+05
  018                      2.990e+05
  019                      1.776e+05
  020                      1.517e+06
  021                      5.775e+05
  022                      5.776e+05
  023                      5.778e+05
  024                      3.135e+04
  025                      5.486e+05
  026                      8.065e+04
  027                      4.704e+05
  028                      4.709e+05
  029                      4.714e+05
  030                      4.717e+05
  031                      4.721e+05
  032                      4.724e+05
  033                      4.728e+05
  034                      2.663e+05
  035                       7181.406
  036                      2.603e+05
  037                      2.069e+05
  038                      2.071e+05
  039                      2.075e+05
  040                      7.638e+04
  041                      1.326e+05
  042                      9.403e+05
  043                      9.406e+05
  044                      9.407e+05
  045                      9.409e+05
  046                      9.420e+05
  047                      7.142e+04
  048                      8.751e+05
  049                      1.432e+05
  050                      1.433e+05
  051                      1.616e+04
  052                      1.274e+05
  053                      1.063e+04
  054                      1.078e+04
  055                      1.184e+05
  056                      7.330e+05
  057                      4.345e+05
  058                      1.763e+05
  059                      2.636e+05
  060                      2.637e+05
  061                      2.640e+05
  062                      2.672e+05
  063                      2.988e+05
  064                      1.262e+05
  065                      1.772e+05
  066                      1.802e+05
  ISD001                   1.146e+06
  ISD002                   2.285e+05
  ISD003                   8.560e+05
  ISD004                   5.779e+05
  ISD005                   4.710e+05
  ISD006                   4.718e+05
  ISD007                   4.725e+05
  ISD008                   2.071e+05
  ISD009                   9.410e+05
  ISD010                   1.433e+05
  ISD011                   2.638e+05
  

  Analysis begun on:  Tue Feb 25 10:14:34 2020
  Analysis ended on:  Tue Feb 25 10:15:32 2020
  Total elapsed time: 00:00:58