
  EPA STORM WATER MANAGEMENT MODEL - VERSION 5.1 (Build 5.2.0.dev5)
  --------------------------------------------------------------

  Gamma 
  Anon 
  
  
  *********************************************************
  NOTE: The summary statistics displayed in this report are
  based on results found at every computational time step,  
  not just on results from each reporting time step.
  *********************************************************
  
  ****************
  Analysis Options
  ****************
  Flow Units ............... CFS
  Process Models:
    Rainfall/Runoff ........ YES
    RDII ................... NO
    Snowmelt ............... NO
    Groundwater ............ NO
    Flow Routing ........... YES
    Ponding Allowed ........ YES
    Water Quality .......... YES
  Infiltration Method ...... GREEN_AMPT
  Flow Routing Method ...... DYNWAVE
  Surcharge Method ......... EXTRAN
  Starting Date ............ 07/05/2014 12:00:00
  Ending Date .............. 07/12/2014 00:00:00
  Antecedent Dry Days ...... 5.0
  Report Time Step ......... 00:01:00
  Wet Time Step ............ 00:01:00
  Dry Time Step ............ 00:01:00
  Routing Time Step ........ 60.00 sec
  Variable Time Step ....... YES
  Maximum Trials ........... 8
  Number of Threads ........ 1
  Head Tolerance ........... 0.005000 ft
  
  
  **************************        Volume         Depth
  Runoff Quantity Continuity     acre-feet        inches
  **************************     ---------       -------
  Total Precipitation ......        64.359         3.750
  Evaporation Loss .........         0.000         0.000
  Infiltration Loss ........        17.554         1.023
  Surface Runoff ...........        46.196         2.692
  Final Storage ............         0.633         0.037
  Continuity Error (%) .....        -0.036
  
  
  **************************           TSS
  Runoff Quality Continuity            lbs
  **************************    ----------
  Initial Buildup ..........      3394.520
  Surface Buildup ..........      2744.445
  Wet Deposition ...........         0.000
  Sweeping Removal .........         0.000
  Infiltration Loss ........         0.000
  BMP Removal ..............         0.000
  Surface Runoff ...........      2602.437
  Remaining Buildup ........      3536.528
  Continuity Error (%) .....         0.000
  
  
  **************************        Volume        Volume
  Flow Routing Continuity        acre-feet      10^6 gal
  **************************     ---------     ---------
  Dry Weather Inflow .......         0.000         0.000
  Wet Weather Inflow .......        46.196        15.054
  Groundwater Inflow .......         0.000         0.000
  RDII Inflow ..............         0.000         0.000
  External Inflow ..........         0.000         0.000
  External Outflow .........         0.000         0.000
  Flooding Loss ............         7.365         2.400
  Evaporation Loss .........         0.000         0.000
  Exfiltration Loss ........         0.000         0.000
  Initial Stored Volume ....         0.000         0.000
  Final Stored Volume ......        38.642        12.592
  Continuity Error (%) .....         0.409
  
  
  **************************           TSS
  Quality Routing Continuity           lbs
  **************************    ----------
  Dry Weather Inflow .......         0.000
  Wet Weather Inflow .......      2602.437
  Groundwater Inflow .......         0.000
  RDII Inflow ..............         0.000
  External Inflow ..........         0.000
  External Outflow .........         0.000
  Flooding Loss ............       470.041
  Exfiltration Loss ........         0.000
  Mass Reacted .............         0.000
  Initial Stored Mass ......         0.000
  Final Stored Mass ........      2104.644
  Continuity Error (%) .....         1.066
  
  
  *************************
  Highest Continuity Errors
  *************************
  Node J13 (100.00%)
  Node 6 (3.98%)
  Node 2 (2.55%)
  Node 4 (1.77%)
  Node 10 (1.49%)
  
  
  ***************************
  Time-Step Critical Elements
  ***************************
  None
  
  
  ********************************
  Highest Flow Instability Indexes
  ********************************
  All links are stable.
  
  
  *************************
  Routing Time Step Summary
  *************************
  Minimum Time Step           :    59.50 sec
  Average Time Step           :    59.99 sec
  Maximum Time Step           :    60.00 sec
  Percent in Steady State     :     0.00
  Average Iterations per Step :     2.00
  Percent Not Converging      :     0.00
  
  
  ***************************
  Subcatchment Runoff Summary
  ***************************
  
  ------------------------------------------------------------------------------------------------------------------------------
                            Total      Total      Total      Total     Imperv       Perv      Total       Total     Peak  Runoff
                           Precip      Runon       Evap      Infil     Runoff     Runoff     Runoff      Runoff   Runoff   Coeff
  Subcatchment                 in         in         in         in         in         in         in    10^6 gal      CFS
  ------------------------------------------------------------------------------------------------------------------------------
  102                        3.75       0.00       0.00       1.26       2.07       0.39       2.46        0.19    17.23   0.656
  103                        3.75       0.00       0.00       1.55       1.51       0.67       2.18        0.33    34.03   0.581
  115                        3.75       0.00       0.00       1.47       1.40       0.86       2.26        0.63    43.62   0.602
  120                        3.75       0.00       0.00       1.26       1.92       0.54       2.46        0.45    41.95   0.656
  1472                       3.75       0.00       0.00       0.98       2.36       0.37       2.73        0.24    21.04   0.729
  1497                       3.75       0.00       0.00       0.37       3.17       0.16       3.33        1.36   103.70   0.889
  1499                       3.75       0.00       0.00       0.11       3.51       0.08       3.58        2.46   175.50   0.956
  1503                       3.75       0.00       0.00       0.64       2.73       0.33       3.06        0.11     9.09   0.817
  1506                       3.75       0.00       0.00       1.40       1.88       0.44       2.33        0.64    61.12   0.620
  1570                       3.75       0.00       0.00       1.76       1.18       0.80       1.98        0.42    44.50   0.527
  1648                       3.75       0.00       0.00       1.57       1.66       0.49       2.15        0.16    15.51   0.573
  1736                       3.75       0.00       0.00       1.28       2.03       0.41       2.44        0.99    92.31   0.650
  1780                       3.75       0.00       0.00       1.72       1.48       0.53       2.01        0.13    12.88   0.535
  54                         3.75       0.00       0.00       0.35       3.21       0.14       3.35        3.31   249.59   0.893
  57                         3.75       0.00       0.00       2.14       1.18       0.42       1.60        0.44    32.46   0.426
  62                         3.75       0.00       0.00       1.59       1.33       0.81       2.14        0.61    65.01   0.569
  93                         3.75       0.00       0.00       1.25       1.99       0.48       2.47        0.55    52.48   0.660
  94                         3.75       0.00       0.00       1.43       1.29       1.01       2.30        0.80    81.98   0.615
  97                         3.75       0.00       0.00       1.40       1.81       0.51       2.32        1.24   120.70   0.620
  
  
  ****************************
  Subcatchment Washoff Summary
  ****************************
  
  ----------------------------------
                                 TSS
  Subcatchment                   lbs
  ----------------------------------
  102                         35.591
  103                         66.514
  115                        124.143
  120                         83.846
  1472                        41.563
  1497                       206.609
  1499                       357.354
  1503                        17.977
  1506                       123.780
  1570                        85.816
  1648                        31.931
  1736                       187.079
  1780                        25.820
  54                         502.724
  57                          89.348
  62                         124.182
  93                         103.277
  94                         155.238
  97                         239.646
  ----------------------------------
  System                    2602.437
  
  
  ******************
  Node Depth Summary
  ******************
  
  ---------------------------------------------------------------------------------
                                 Average  Maximum  Maximum  Time of Max    Reported
                                   Depth    Depth      HGL   Occurrence   Max Depth
  Node                 Type         Feet     Feet     Feet  days hr:min        Feet
  ---------------------------------------------------------------------------------
  J13                  JUNCTION     0.45     0.47   888.64     6  12:00        0.47
  J14                  JUNCTION     0.00     0.00   881.00     0  00:00        0.00
  J15                  JUNCTION     0.98     1.00   872.00     0  02:16        1.00
  J18                  JUNCTION     0.00     0.00   874.22     0  00:00        0.00
  J19                  JUNCTION     0.00     0.00   858.28     0  00:00        0.00
  J22                  JUNCTION     0.00     0.00   879.00     0  00:00        0.00
  J23                  JUNCTION     0.00     0.00   868.00     0  00:00        0.00
  J24                  JUNCTION     0.00     0.00   846.00     0  00:00        0.00
  J25                  JUNCTION     0.00     0.00   832.50     0  00:00        0.00
  J26                  JUNCTION     0.00     0.00   821.50     0  00:00        0.00
  O                    OUTFALL      0.00     0.00   810.00     0  00:00        0.00
  11                   STORAGE     14.72    14.96   889.18     0  03:52       14.96
  9                    STORAGE      9.89    10.00   898.17     0  02:44       10.00
  5                    STORAGE      4.14    10.00   878.00     0  02:53       10.00
  4                    STORAGE      4.17     4.26   850.26     6  12:00        4.26
  10                   STORAGE      7.45     7.59   865.87     6  12:00        7.59
  3                    STORAGE      0.70     0.72   833.22     6  12:00        0.72
  1                    STORAGE      5.02     5.12   815.12     6  12:00        5.12
  2                    STORAGE      5.55     5.66   827.16     6  12:00        5.66
  6                    STORAGE      4.81     4.90   875.90     6  12:00        4.90
  7                    STORAGE      9.83    10.00   889.00     0  03:58       10.00
  8                    STORAGE      7.52     7.64   888.64     6  12:00        7.64
  
  
  *******************
  Node Inflow Summary
  *******************
  
  -------------------------------------------------------------------------------------------------
                                  Maximum  Maximum                  Lateral       Total        Flow
                                  Lateral    Total  Time of Max      Inflow      Inflow     Balance
                                   Inflow   Inflow   Occurrence      Volume      Volume       Error
  Node                 Type           CFS      CFS  days hr:min    10^6 gal    10^6 gal     Percent
  -------------------------------------------------------------------------------------------------
  J13                  JUNCTION      0.00     0.01     0  03:47           0    0.000406     406.066 gal
  J14                  JUNCTION      0.00     0.00     0  00:00           0           0       0.000 gal
  J15                  JUNCTION      0.00     3.29     0  03:07           0       0.515       0.651
  J18                  JUNCTION      0.00     0.00     0  00:00           0           0       0.000 gal
  J19                  JUNCTION      0.00     0.00     0  00:00           0           0       0.000 gal
  J22                  JUNCTION      0.00     0.00     0  00:00           0           0       0.000 gal
  J23                  JUNCTION      0.00     0.00     0  00:00           0           0       0.000 gal
  J24                  JUNCTION      0.00     0.00     0  00:00           0           0       0.000 gal
  J25                  JUNCTION      0.00     0.00     0  00:00           0           0       0.000 gal
  J26                  JUNCTION      0.00     0.00     0  00:00           0           0       0.000 gal
  O                    OUTFALL       0.00     0.00     0  00:00           0           0       0.000 gal
  11                   STORAGE     206.28   206.28     0  03:00        2.36        2.36       0.329
  9                    STORAGE      81.98    81.98     0  03:00       0.799       0.799      -0.238
  5                    STORAGE     141.74   141.74     0  03:00        1.48        1.48       0.301
  4                    STORAGE     240.51   240.51     0  03:00        3.07        3.07       1.798
  10                   STORAGE     156.18   156.18     0  03:00        1.91        1.91       1.511
  3                    STORAGE      32.46    32.46     0  03:00        0.44        0.44       0.459
  1                    STORAGE     249.59   249.59     0  03:00        3.31        3.31       0.380
  2                    STORAGE       9.09     9.09     0  03:00       0.111       0.111       2.614
  6                    STORAGE      34.03    34.03     0  03:00       0.332       0.332       4.140
  7                    STORAGE      61.72    61.72     0  03:00       0.612       0.612      -0.071
  8                    STORAGE      61.12    61.12     0  03:00        0.64        0.64       1.450
  
  
  **********************
  Node Surcharge Summary
  **********************
  
  Surcharging occurs when water rises above the top of the highest conduit.
  ---------------------------------------------------------------------
                                               Max. Height   Min. Depth
                                   Hours       Above Crown    Below Rim
  Node                 Type      Surcharged           Feet         Feet
  ---------------------------------------------------------------------
  J15                  JUNCTION        8.70          0.000        0.000
  
  
  *********************
  Node Flooding Summary
  *********************
  
  Flooding refers to all water that overflows a node, whether it ponds or not.
  --------------------------------------------------------------------------
                                                             Total   Maximum
                                 Maximum   Time of Max       Flood    Ponded
                        Hours       Rate    Occurrence      Volume     Depth
  Node                 Flooded       CFS   days hr:min    10^6 gal      Feet
  --------------------------------------------------------------------------
  J15                     8.70      3.29      0  03:07       0.508     0.000
  11                     23.47      9.13      0  03:52       0.289     0.000
  9                       9.33     80.79      0  03:00       0.704     0.000
  5                       1.58    136.13      0  03:00       0.840     0.000
  7                       9.77      1.55      0  03:58       0.058     0.000
  
  
  **********************
  Storage Volume Summary
  **********************
  
  --------------------------------------------------------------------------------------------------
                         Average     Avg  Evap Exfil       Maximum     Max    Time of Max    Maximum
                          Volume    Pcnt  Pcnt  Pcnt        Volume    Pcnt     Occurrence    Outflow
  Storage Unit          1000 ft3    Full  Loss  Loss      1000 ft3    Full    days hr:min        CFS
  --------------------------------------------------------------------------------------------------
  11                     270.330      98     0     0       275.438     100       0  03:52       0.00
  9                       12.800      99     0     0        12.966     100       0  02:44       0.00
  5                       16.906      37     0     0        45.480     100       0  02:53       3.29
  4                      394.911      35     0     0       403.093      36       6  12:00       0.00
  10                     246.127      36     0     0       251.198      36       6  12:00       0.00
  3                       57.293       5     0     0        58.489       5       6  12:00       0.00
  1                      431.470      41     0     0       440.447      42       6  12:00       0.00
  2                       14.226      50     0     0        14.520      51       6  12:00       0.00
  6                       41.790       7     0     0        42.634       8       6  12:00       0.00
  7                       72.716      98     0     0        74.093     100       0  03:58       0.00
  8                       82.657      59     0     0        84.335      60       6  12:00       0.01
  
  
  ***********************
  Outfall Loading Summary
  ***********************
  
  -------------------------------------------------------------------------
                         Flow       Avg       Max       Total         Total
                         Freq      Flow      Flow      Volume           TSS
  Outfall Node           Pcnt       CFS       CFS    10^6 gal           lbs
  -------------------------------------------------------------------------
  O                      0.00      0.00      0.00       0.000         0.000
  -------------------------------------------------------------------------
  System                 0.00      0.00      0.00       0.000         0.000
  
  
  ********************
  Link Flow Summary
  ********************
  
  -----------------------------------------------------------------------------
                                 Maximum  Time of Max   Maximum    Max/    Max/
                                  |Flow|   Occurrence   |Veloc|    Full    Full
  Link                 Type          CFS  days hr:min    ft/sec    Flow   Depth
  -----------------------------------------------------------------------------
  11C10                CONDUIT      0.00     0  00:00      0.00    0.00    0.50
  5C4                  CONDUIT      0.00     0  00:00      0.00    0.00    0.50
  4C3                  CONDUIT      0.00     0  00:00      0.00    0.00    0.36
  3C2                  CONDUIT      0.00     0  00:00      0.00    0.00    0.50
  2C1                  CONDUIT      0.00     0  00:00      0.00    0.00    0.50
  9C8                  CONDUIT      0.01     0  03:47      0.02    0.00    0.73
  8C6                  CONDUIT      0.00     0  00:00      0.00    0.00    0.50
  6C5                  CONDUIT      3.29     0  03:07      4.19    1.41    1.00
  7C6                  CONDUIT      0.00     0  00:00      0.00    0.00    0.50
  10C4                 CONDUIT      0.00     0  00:00      0.00    0.00    0.33
  O9                   ORIFICE      0.00     0  00:00                          
  O8                   ORIFICE      0.00     0  00:00                          
  O6                   ORIFICE      0.00     0  00:00                          
  O10                  ORIFICE      0.00     0  00:00                          
  O11                  ORIFICE      0.00     0  00:00                          
  O7                   ORIFICE      0.00     0  00:00                          
  O5                   ORIFICE      0.00     0  00:00                          
  O4                   ORIFICE      0.00     0  00:00                          
  O3                   ORIFICE      0.00     0  00:00                          
  O2                   ORIFICE      0.00     0  00:00                          
  O1                   ORIFICE      0.00     0  00:00                          
  
  
  ***************************
  Flow Classification Summary
  ***************************
  
  -------------------------------------------------------------------------------------
                      Adjusted    ---------- Fraction of Time in Flow Class ---------- 
                       /Actual         Up    Down  Sub   Sup   Up    Down  Norm  Inlet 
  Conduit               Length    Dry  Dry   Dry   Crit  Crit  Crit  Crit  Ltd   Ctrl  
  -------------------------------------------------------------------------------------
  11C10                   1.00   0.00  1.00  0.00  0.00  0.00  0.00  0.00  0.00  0.00
  5C4                     1.00   0.00  1.00  0.00  0.00  0.00  0.00  0.00  0.00  0.00
  4C3                     1.00   0.00  1.00  0.00  0.00  0.00  0.00  0.00  0.00  0.00
  3C2                     1.00   0.00  1.00  0.00  0.00  0.00  0.00  0.00  0.00  0.00
  2C1                     1.00   0.00  1.00  0.00  0.00  0.00  0.00  0.00  0.00  0.00
  9C8                     1.00   0.00  0.02  0.00  0.98  0.00  0.00  0.00  0.00  0.00
  8C6                     1.00   0.00  1.00  0.00  0.00  0.00  0.00  0.00  0.00  0.00
  6C5                     1.00   0.00  0.01  0.00  0.99  0.00  0.00  0.00  0.00  0.00
  7C6                     1.00   0.00  1.00  0.00  0.00  0.00  0.00  0.00  0.00  0.00
  10C4                    1.00   0.00  1.00  0.00  0.00  0.00  0.00  0.00  0.00  0.00
  
  
  *************************
  Conduit Surcharge Summary
  *************************
  
  ----------------------------------------------------------------------------
                                                           Hours        Hours 
                         --------- Hours Full --------   Above Full   Capacity
  Conduit                Both Ends  Upstream  Dnstream   Normal Flow   Limited
  ----------------------------------------------------------------------------
  9C8                         0.01      0.01    152.25      0.01         0.01
  6C5                         8.70      8.70    154.12      4.52         0.01
  
  
  ***************************
  Link Pollutant Load Summary
  ***************************
  
  ----------------------------------
                                 TSS
  Link                           lbs
  ----------------------------------
  11C10                        0.000
  5C4                          0.000
  4C3                          0.000
  3C2                          0.000
  2C1                          0.000
  9C8                          0.026
  8C6                          0.000
  6C5                         90.586
  7C6                          0.000
  10C4                         0.000
  O9                           0.000
  O8                           0.000
  O6                           0.000
  O10                          0.000
  O11                          0.000
  O7                           0.000
  O5                           0.000
  O4                           0.000
  O3                           0.000
  O2                           0.000
  O1                           0.000
  

  Analysis begun on:  Mon Jan 20 11:02:13 2020
  Analysis ended on:  Mon Jan 20 11:02:19 2020
  Total elapsed time: 00:00:06