
  EPA STORM WATER MANAGEMENT MODEL - VERSION 5.1 (Build 5.2.0.dev5)
  --------------------------------------------------------------

  
  *********************************************************
  NOTE: The summary statistics displayed in this report are
  based on results found at every computational time step,  
  not just on results from each reporting time step.
  *********************************************************
  
  ****************
  Analysis Options
  ****************
  Flow Units ............... CMS
  Process Models:
    Rainfall/Runoff ........ YES
    RDII ................... NO
    Snowmelt ............... NO
    Groundwater ............ NO
    Flow Routing ........... YES
    Ponding Allowed ........ NO
    Water Quality .......... NO
  Infiltration Method ...... HORTON
  Flow Routing Method ...... DYNWAVE
  Surcharge Method ......... EXTRAN
  Starting Date ............ 02/25/2018 00:00:00
  Ending Date .............. 02/28/2018 06:00:00
  Antecedent Dry Days ...... 0.0
  Report Time Step ......... 00:15:00
  Wet Time Step ............ 00:05:00
  Dry Time Step ............ 01:00:00
  Routing Time Step ........ 30.00 sec
  Variable Time Step ....... YES
  Maximum Trials ........... 8
  Number of Threads ........ 1
  Head Tolerance ........... 0.001500 m
  
  
  **************************        Volume         Depth
  Runoff Quantity Continuity     hectare-m            mm
  **************************     ---------       -------
  Total Precipitation ......         3.240        16.200
  Evaporation Loss .........         0.000         0.000
  Infiltration Loss ........         1.621         8.105
  Surface Runoff ...........         1.617         8.084
  Final Storage ............         0.002         0.011
  Continuity Error (%) .....        -0.003
  
  
  **************************        Volume        Volume
  Flow Routing Continuity        hectare-m      10^6 ltr
  **************************     ---------     ---------
  Dry Weather Inflow .......         0.000         0.000
  Wet Weather Inflow .......         1.617        16.166
  Groundwater Inflow .......         0.000         0.000
  RDII Inflow ..............         0.000         0.000
  External Inflow ..........         0.000         0.000
  External Outflow .........         1.616        16.162
  Flooding Loss ............         0.000         0.000
  Evaporation Loss .........         0.000         0.000
  Exfiltration Loss ........         0.000         0.000
  Initial Stored Volume ....         0.000         0.000
  Final Stored Volume ......         0.000         0.005
  Continuity Error (%) .....         0.000
  
  
  ***************************
  Time-Step Critical Elements
  ***************************
  Link 8 (44.02%)
  
  
  ********************************
  Highest Flow Instability Indexes
  ********************************
  All links are stable.
  
  
  *************************
  Routing Time Step Summary
  *************************
  Minimum Time Step           :     8.43 sec
  Average Time Step           :    22.33 sec
  Maximum Time Step           :    30.00 sec
  Percent in Steady State     :     0.00
  Average Iterations per Step :     2.00
  Percent Not Converging      :     0.00
  
  
  ***************************
  Subcatchment Runoff Summary
  ***************************
  
  ------------------------------------------------------------------------------------------------------------------------------
                            Total      Total      Total      Total     Imperv       Perv      Total       Total     Peak  Runoff
                           Precip      Runon       Evap      Infil     Runoff     Runoff     Runoff      Runoff   Runoff   Coeff
  Subcatchment                 mm         mm         mm         mm         mm         mm         mm    10^6 ltr      CMS
  ------------------------------------------------------------------------------------------------------------------------------
  SC1                       16.20       0.00       0.00       8.11       4.04       4.04       8.08        8.08     0.35   0.499
  3                         16.20       0.00       0.00       8.11       4.04       4.04       8.08        8.08     0.35   0.499
  
  
  ******************
  Node Depth Summary
  ******************
  
  ---------------------------------------------------------------------------------
                                 Average  Maximum  Maximum  Time of Max    Reported
                                   Depth    Depth      HGL   Occurrence   Max Depth
  Node                 Type       Meters   Meters   Meters  days hr:min      Meters
  ---------------------------------------------------------------------------------
  P1J                  JUNCTION     0.06     0.22    95.22     0  06:02        0.22
  P2J                  JUNCTION     0.09     0.32    95.32     0  06:07        0.32
  O                    OUTFALL      0.07     0.26    80.26     0  06:04        0.26
  PJ3                  DIVIDER      0.07     0.26    90.26     0  06:03        0.26
  P1                   STORAGE      0.03     0.13   100.13     0  06:02        0.13
  P2                   STORAGE      0.13     0.48    95.48     0  06:06        0.48
  
  
  *******************
  Node Inflow Summary
  *******************
  
  -------------------------------------------------------------------------------------------------
                                  Maximum  Maximum                  Lateral       Total        Flow
                                  Lateral    Total  Time of Max      Inflow      Inflow     Balance
                                   Inflow   Inflow   Occurrence      Volume      Volume       Error
  Node                 Type           CMS      CMS  days hr:min    10^6 ltr    10^6 ltr     Percent
  -------------------------------------------------------------------------------------------------
  P1J                  JUNCTION     0.000    0.346     0  06:02           0        8.08      -0.002
  P2J                  JUNCTION     0.000    0.340     0  06:05           0        8.08       0.007
  O                    OUTFALL      0.000    0.685     0  06:04           0        16.2       0.000
  PJ3                  DIVIDER      0.000    0.685     0  06:03           0        16.2      -0.002
  P1                   STORAGE      0.349    0.349     0  06:00        8.08        8.08      -0.001
  P2                   STORAGE      0.349    0.349     0  06:00        8.08        8.08       0.000
  
  
  **********************
  Node Surcharge Summary
  **********************
  
  No nodes were surcharged.
  
  
  *********************
  Node Flooding Summary
  *********************
  
  No nodes were flooded.
  
  
  **********************
  Storage Volume Summary
  **********************
  
  --------------------------------------------------------------------------------------------------
                         Average     Avg  Evap Exfil       Maximum     Max    Time of Max    Maximum
                          Volume    Pcnt  Pcnt  Pcnt        Volume    Pcnt     Occurrence    Outflow
  Storage Unit           1000 m3    Full  Loss  Loss       1000 m3    Full    days hr:min        CMS
  --------------------------------------------------------------------------------------------------
  P1                       0.031       2     0     0         0.131       7       0  06:02      0.346
  P2                       0.129       6     0     0         0.482      24       0  06:06      0.340
  
  
  ***********************
  Outfall Loading Summary
  ***********************
  
  -----------------------------------------------------------
                         Flow       Avg       Max       Total
                         Freq      Flow      Flow      Volume
  Outfall Node           Pcnt       CMS       CMS    10^6 ltr
  -----------------------------------------------------------
  O                     98.80     0.133     0.685      16.162
  -----------------------------------------------------------
  System                98.80     0.133     0.685      16.162
  
  
  ********************
  Link Flow Summary
  ********************
  
  -----------------------------------------------------------------------------
                                 Maximum  Time of Max   Maximum    Max/    Max/
                                  |Flow|   Occurrence   |Veloc|    Full    Full
  Link                 Type          CMS  days hr:min     m/sec    Flow   Depth
  -----------------------------------------------------------------------------
  7                    CONDUIT     0.346     0  06:02      4.32    0.05    0.24
  8                    CONDUIT     0.685     0  06:04      7.58    0.07    0.26
  9                    CONDUIT     0.340     0  06:06      3.20    0.10    0.29
  1                    ORIFICE     0.346     0  06:02                          
  2                    ORIFICE     0.340     0  06:05                          
  
  
  ***************************
  Flow Classification Summary
  ***************************
  
  -------------------------------------------------------------------------------------
                      Adjusted    ---------- Fraction of Time in Flow Class ---------- 
                       /Actual         Up    Down  Sub   Sup   Up    Down  Norm  Inlet 
  Conduit               Length    Dry  Dry   Dry   Crit  Crit  Crit  Crit  Ltd   Ctrl  
  -------------------------------------------------------------------------------------
  7                       1.00   0.01  0.00  0.00  0.00  0.99  0.00  0.00  0.97  0.00
  8                       1.00   0.01  0.00  0.00  0.00  0.99  0.00  0.00  0.46  0.00
  9                       1.00   0.01  0.00  0.00  0.01  0.98  0.00  0.00  0.02  0.00
  
  
  *************************
  Conduit Surcharge Summary
  *************************
  
  No conduits were surcharged.
  

  Analysis begun on:  Thu Feb 20 13:29:39 2020
  Analysis ended on:  Thu Feb 20 13:29:40 2020
  Total elapsed time: 00:00:01